psat-mat/psat/tests/d_wtfr_01.m
Bus.con = [ ... 
  1  400  1  0  1  1;
  2  400  1  0  1  1;
 ];

Line.con = [ ... 
  1  2  100  400  60  0  0  0.01  0.1  0.001  0  0  0  0  0  1;
 ];

SW.con = [ ... 
  1  100  400  1  0  1.5  -1.5  1.1  0.9  0.8  1  1  1;
 ];

PV.con = [ ... 
  2  2  400  0.8  1  0.8  -0.2  1.1  0.9  1  1;
 ];

Dfig.con = [ ... 
  2  1  10  400  60  0.01  0.1  0.01  0.08  3  3  10  3  10  0.01  75  4  3  0.01123596  1  0  0.7  -0.7  1  1;
 ];

Wind.con = [ ... 
  1  15  1.225  4  0.1  20  2  5  15  1  5  15  1  50  0.01  0.2  50;
 ];

Busfreq.con = [ ... 
  2  0.001  0.001  1;
 ];

WTFR.con = [ ...
    1 1 0.01 0.01 20 1.2 0.5 -10 -5 10 -10 0.01 2 0 1;
           ];

% col. 1   wind generator number
% col. 2   frequency measure number
% col. 3   Tr
% col. 4   Tw
% col. 5   R
% col. 6   we_max
% col. 7   we_min
% col. 8   KI
% col. 9   KP
% col. 10  csi_max
% col. 11  csi_min
% col. 12  TA
% col. 13  pfw_max
% col. 14  pfw_min
% col. 15  u

Bus.names = {... 
  'Bus1'; 'Bus2'};

